Version 4
SHEET 1 2192 1504
WIRE 896 16 848 16
WIRE 1008 16 976 16
WIRE 64 32 0 32
WIRE 160 32 64 32
WIRE 320 32 160 32
WIRE 1536 32 1504 32
WIRE 1648 32 1616 32
WIRE 160 48 160 32
WIRE 320 96 320 32
WIRE 688 96 608 96
WIRE 848 96 848 16
WIRE 848 96 768 96
WIRE 1376 96 1296 96
WIRE 1504 96 1504 32
WIRE 1504 96 1456 96
WIRE 0 128 0 32
WIRE 608 128 608 96
WIRE 1296 128 1296 96
WIRE 160 144 160 128
WIRE 928 144 928 128
WIRE 1568 144 1568 128
WIRE 848 160 848 96
WIRE 896 160 848 160
WIRE 1504 160 1504 96
WIRE 1536 160 1504 160
WIRE 1008 176 1008 16
WIRE 1008 176 960 176
WIRE 1024 176 1008 176
WIRE 1648 176 1648 32
WIRE 1648 176 1600 176
WIRE 1664 176 1648 176
WIRE 320 192 320 176
WIRE 416 192 320 192
WIRE 896 192 848 192
WIRE 1536 192 1504 192
WIRE 320 208 320 192
WIRE 256 224 160 224
WIRE 928 224 928 208
WIRE 1568 224 1568 208
WIRE 160 240 160 224
WIRE 160 240 112 240
WIRE 208 240 160 240
WIRE 704 256 704 224
WIRE 704 256 640 256
WIRE 784 256 784 224
WIRE 848 256 848 192
WIRE 848 256 784 256
WIRE 1376 256 1328 256
WIRE 1504 256 1504 192
WIRE 1504 256 1456 256
WIRE 704 288 704 256
WIRE 784 288 784 256
WIRE 848 304 848 256
WIRE 1504 304 1504 256
WIRE 1920 304 1920 288
WIRE 2048 304 2048 288
WIRE 160 320 112 320
WIRE 208 320 160 320
WIRE 0 336 0 208
WIRE 96 336 0 336
WIRE 160 336 160 320
WIRE 160 336 96 336
WIRE 320 336 320 288
WIRE 320 336 160 336
WIRE 96 352 96 336
WIRE 1920 400 1920 384
WIRE 2048 400 2048 384
WIRE 848 416 848 384
WIRE 1504 416 1504 384
WIRE 144 640 80 640
WIRE 272 640 224 640
WIRE 432 640 272 640
WIRE 272 656 272 640
WIRE 672 688 624 688
WIRE 784 688 736 688
WIRE 912 688 864 688
WIRE 1024 688 912 688
WIRE 1072 688 1024 688
WIRE 1472 688 1360 688
WIRE 1552 688 1472 688
WIRE 368 720 368 704
WIRE 1904 720 1904 704
WIRE -64 736 -112 736
WIRE 80 736 80 640
WIRE 80 736 16 736
WIRE 144 736 80 736
WIRE 272 736 272 720
WIRE 272 736 224 736
WIRE 336 736 272 736
WIRE 432 752 432 640
WIRE 432 752 400 752
WIRE 912 752 912 688
WIRE 1472 752 1472 688
WIRE 336 768 304 768
WIRE 80 784 80 736
WIRE 1024 784 1024 688
WIRE 1072 784 1024 784
WIRE 368 800 368 784
WIRE 1904 832 1904 800
WIRE 2096 832 1904 832
WIRE 1904 848 1904 832
WIRE 80 880 80 848
WIRE 304 880 304 768
WIRE 304 880 80 880
WIRE 80 896 80 880
WIRE 912 896 912 816
WIRE 1184 896 912 896
WIRE 1216 896 1216 848
WIRE 1216 896 1184 896
WIRE 1472 896 1472 816
WIRE 1472 896 1216 896
WIRE 1184 928 1184 896
WIRE 1904 976 1904 928
WIRE 144 1120 80 1120
WIRE 272 1120 224 1120
WIRE 432 1120 272 1120
WIRE 272 1136 272 1120
WIRE 368 1200 368 1184
WIRE -64 1216 -112 1216
WIRE 80 1216 80 1120
WIRE 80 1216 16 1216
WIRE 144 1216 80 1216
WIRE 272 1216 272 1200
WIRE 272 1216 224 1216
WIRE 336 1216 272 1216
WIRE 432 1232 432 1120
WIRE 432 1232 400 1232
WIRE 336 1248 304 1248
WIRE 80 1264 80 1216
WIRE 368 1280 368 1264
WIRE 80 1360 80 1328
WIRE 304 1360 304 1248
WIRE 304 1360 80 1360
WIRE 80 1376 80 1360
FLAG 96 352 0
FLAG 256 224 Isens
FLAG 416 192 Vsens
FLAG 1296 128 0
FLAG 1568 224 0
FLAG 1328 256 Isens
FLAG 1504 416 1v65
FLAG 1568 128 3v3
FLAG 848 416 1v65
FLAG 928 128 3v3
FLAG 928 224 0
FLAG 608 128 0
FLAG 640 256 Vsens
FLAG 1184 928 0
FLAG 1552 688 3v3
FLAG 624 688 Vac
FLAG 64 32 Vac
FLAG 368 704 3v3
FLAG 368 800 0
FLAG 80 896 1v65
FLAG 1024 176 Vcon
FLAG 1664 176 Icon
FLAG -112 736 Vcon
FLAG -112 1216 Icon
FLAG 80 1376 1v65
FLAG 368 1280 0
FLAG 368 1184 3v3
FLAG 1920 400 0
FLAG 1920 288 1v65r
FLAG 2048 400 0
FLAG 2048 288 3v3r
FLAG 1904 976 0
FLAG 1904 704 3v3
FLAG 2096 832 1v65
SYMBOL voltage 0 112 R0
WINDOW 3 24 96 Invisible 2
WINDOW 123 0 0 Left 2
WINDOW 39 0 0 Left 2
SYMATTR Value SINE(0 19.8 500 0 0 0)
SYMATTR InstName V1
SYMBOL ind 144 32 R0
SYMATTR InstName L1
SYMATTR Value 3.7m
SYMBOL res 144 128 R0
SYMATTR InstName R1
SYMATTR Value 20
SYMBOL res 144 224 R0
SYMATTR InstName R2
SYMATTR Value 1.2
SYMBOL res 304 80 R0
SYMATTR InstName R3
SYMATTR Value 100k
SYMBOL res 304 192 R0
SYMATTR InstName R4
SYMATTR Value 8.2k
SYMBOL res 192 224 R0
SYMATTR InstName R5
SYMATTR Value 1.2
SYMBOL res 96 224 R0
SYMATTR InstName R6
SYMATTR Value 1.2
SYMBOL res 1472 80 R90
WINDOW 0 0 56 VBottom 2
WINDOW 3 32 56 VTop 2
SYMATTR InstName R11
SYMATTR Value 27k
SYMBOL res 1472 240 R90
WINDOW 0 0 56 VBottom 2
WINDOW 3 32 56 VTop 2
SYMATTR InstName R12
SYMATTR Value 27k
SYMBOL Opamps\\UniversalOpamp2 1568 176 R0
SYMATTR InstName U2
SYMBOL res 1488 288 R0
SYMATTR InstName R13
SYMATTR Value 120k
SYMBOL res 1632 16 R90
WINDOW 0 0 56 VBottom 2
WINDOW 3 32 56 VTop 2
SYMATTR InstName R14
SYMATTR Value 120k
SYMBOL Opamps\\UniversalOpamp2 928 176 R0
SYMATTR InstName U1
SYMBOL res 784 80 R90
WINDOW 0 0 56 VBottom 2
WINDOW 3 32 56 VTop 2
SYMATTR InstName R7
SYMATTR Value 150k
SYMBOL res 864 400 R180
WINDOW 0 36 76 Left 2
WINDOW 3 36 40 Left 2
SYMATTR InstName R9
SYMATTR Value 150k
SYMBOL res 880 32 R270
WINDOW 0 32 56 VTop 2
WINDOW 3 0 56 VBottom 2
SYMATTR InstName R10
SYMATTR Value 150k
SYMBOL res 800 208 R90
WINDOW 0 0 56 VBottom 2
WINDOW 3 32 56 VTop 2
SYMATTR InstName R8
SYMATTR Value 180k
SYMBOL res 800 272 R90
WINDOW 0 0 56 VBottom 2
WINDOW 3 32 56 VTop 2
SYMATTR InstName R15
SYMATTR Value 680k
SYMBOL PowerProducts\\LT3009-3.3 1216 736 R0
SYMATTR InstName U3
SYMBOL res 880 672 R90
WINDOW 0 0 56 VBottom 2
WINDOW 3 32 56 VTop 2
SYMATTR InstName R16
SYMATTR Value 10
SYMBOL cap 896 752 R0
SYMATTR InstName C1
SYMATTR Value 100µ
SYMBOL cap 1456 752 R0
SYMATTR InstName C2
SYMATTR Value 100µ
SYMBOL diode 672 704 R270
WINDOW 0 32 32 VTop 2
WINDOW 3 0 32 VBottom 2
SYMATTR InstName D1
SYMBOL res 32 720 R90
WINDOW 0 0 56 VBottom 2
WINDOW 3 32 56 VTop 2
SYMATTR InstName R17
SYMATTR Value 3.3k
SYMBOL cap 64 784 R0
SYMATTR InstName C3
SYMATTR Value 0.015µ
SYMBOL res 240 720 R90
WINDOW 0 0 56 VBottom 2
WINDOW 3 32 56 VTop 2
SYMATTR InstName R18
SYMATTR Value 12k
SYMBOL res 240 624 R90
WINDOW 0 0 56 VBottom 2
WINDOW 3 32 56 VTop 2
SYMATTR InstName R19
SYMATTR Value 3.3k
SYMBOL cap 256 656 R0
SYMATTR InstName C4
SYMATTR Value 0.0015µ
SYMBOL Opamps\\UniversalOpamp2 368 752 R0
SYMATTR InstName U4
SYMBOL res 32 1200 R90
WINDOW 0 0 56 VBottom 2
WINDOW 3 32 56 VTop 2
SYMATTR InstName R20
SYMATTR Value 3.3k
SYMBOL cap 64 1264 R0
SYMATTR InstName C5
SYMATTR Value 0.015µ
SYMBOL res 240 1200 R90
WINDOW 0 0 56 VBottom 2
WINDOW 3 32 56 VTop 2
SYMATTR InstName R21
SYMATTR Value 12k
SYMBOL Opamps\\UniversalOpamp2 368 1232 R0
SYMATTR InstName U5
SYMBOL res 240 1104 R90
WINDOW 0 0 56 VBottom 2
WINDOW 3 32 56 VTop 2
SYMATTR InstName R22
SYMATTR Value 3.3k
SYMBOL cap 256 1136 R0
SYMATTR InstName C6
SYMATTR Value 0.0015µ
SYMBOL voltage 1920 288 R0
WINDOW 123 0 0 Left 2
WINDOW 39 0 0 Left 2
SYMATTR InstName V2
SYMATTR Value 1.65
SYMBOL voltage 2048 288 R0
WINDOW 123 0 0 Left 2
WINDOW 39 0 0 Left 2
SYMATTR InstName V3
SYMATTR Value 3.3
SYMBOL res 1920 816 R180
WINDOW 0 36 76 Left 2
WINDOW 3 36 40 Left 2
SYMATTR InstName R23
SYMATTR Value 1.2k
SYMBOL res 1920 944 R180
WINDOW 0 36 76 Left 2
WINDOW 3 36 40 Left 2
SYMATTR InstName R24
SYMATTR Value 1.2k
TEXT 48 64 Left 2 ;Load
TEXT 1328 504 Left 2 ;Current Signal Conditioning Circuit
TEXT 656 504 Left 2 ;Voltage Signal Conditioning Circuit
TEXT -16 504 Left 2 ;Voltage & Current Sensing Circuit
TEXT 1136 992 Left 2 ;3.3V regulator
TEXT 128 960 Left 2 ;Voltage Filter
TEXT 128 1448 Left 2 ;Current Filter
TEXT -192 1488 Left 2 !.tran 1 uic
TEXT 1848 1048 Left 2 ;voltage divider for 1.65V
RECTANGLE Normal 224 224 112 32 2
